Version 4
SHEET 1 1744 680
WIRE 528 48 320 48
WIRE 208 112 48 112
WIRE 528 128 528 48
WIRE 528 128 496 128
WIRE 544 128 528 128
WIRE 48 144 48 112
WIRE 48 144 -64 144
WIRE 208 144 208 112
WIRE 320 144 320 48
WIRE 432 176 432 128
WIRE 432 176 384 176
WIRE 608 176 608 128
WIRE 688 176 608 176
WIRE 832 176 688 176
WIRE 976 176 832 176
WIRE 1360 176 1232 176
WIRE 1632 176 1360 176
WIRE 688 192 688 176
WIRE 832 192 832 176
WIRE 48 224 -64 224
WIRE 432 224 432 176
WIRE 528 224 496 224
WIRE 544 224 528 224
WIRE 608 224 608 176
WIRE 48 256 48 224
WIRE 144 256 48 256
WIRE 208 256 208 208
WIRE 208 256 144 256
WIRE 384 288 384 176
WIRE 688 288 688 256
WIRE 688 288 384 288
WIRE 832 288 832 256
WIRE 832 288 688 288
WIRE 976 288 832 288
WIRE 1104 288 1104 272
WIRE 1104 288 976 288
WIRE 1360 288 1360 240
WIRE 1360 288 1104 288
WIRE 320 320 320 208
WIRE 528 320 528 224
WIRE 528 320 320 320
WIRE 144 352 144 256
WIRE 976 416 976 288
FLAG 976 416 0
FLAG 144 352 0
FLAG 1632 176 Vout
IOPIN 1632 176 Out
SYMBOL ZZZ\\VolReg\\7815 1104 176 R0
SYMATTR InstName U2
SYMBOL ZZZ\\TRANSFORMer\\TRANSFORM2 224 128 R0
SYMATTR SpiceLine n1=55 n2=6 Al=1u
SYMATTR InstName U1
SYMBOL Vrms -64 208 R0
SYMATTR InstName U3
SYMBOL diode 432 144 R270
WINDOW 0 32 32 VTop 2
WINDOW 3 0 32 VBottom 2
SYMATTR InstName D1
SYMATTR Value 1N4007
SYMBOL diode 544 144 R270
WINDOW 0 32 32 VTop 2
WINDOW 3 0 32 VBottom 2
SYMATTR InstName D2
SYMATTR Value 1N4007
SYMBOL diode 544 240 R270
WINDOW 0 32 32 VTop 2
WINDOW 3 0 32 VBottom 2
SYMATTR InstName D3
SYMATTR Value 1N4007
SYMBOL diode 432 240 R270
WINDOW 0 32 32 VTop 2
WINDOW 3 0 32 VBottom 2
SYMATTR InstName D4
SYMATTR Value 1N4007
SYMBOL polcap 672 192 R0
SYMATTR InstName C3
SYMATTR Value 3300µF
SYMATTR SpiceLine V=63V
SYMBOL cap 816 192 R0
SYMATTR InstName C1
SYMATTR Value 0.33µF
SYMBOL cap 1344 176 R0
SYMATTR InstName C2
SYMATTR Value 0.1µF
TEXT -208 440 Left 2 !.tran 0.1s
