Version 4
SHEET 1 3952 680
WIRE 896 -304 832 -304
WIRE 976 -144 976 -304
WIRE 1024 -144 976 -144
WIRE 752 -48 752 -144
WIRE 752 -48 496 -48
WIRE 496 -32 496 -48
WIRE 752 -32 752 -48
WIRE 1024 -16 1024 -144
WIRE 384 112 96 112
WIRE 752 128 752 48
WIRE 752 128 672 128
WIRE 832 128 752 128
WIRE 1104 128 896 128
WIRE 96 144 96 112
WIRE 384 176 384 112
WIRE 496 176 496 48
WIRE 496 176 448 176
WIRE 576 176 496 176
WIRE 608 176 576 176
WIRE 1104 176 1104 128
WIRE 224 224 96 224
WIRE 768 224 672 224
WIRE 768 240 768 224
WIRE 496 256 496 176
WIRE 768 256 768 240
WIRE 768 336 496 336
WIRE 224 368 224 224
WIRE 1104 448 1104 256
WIRE 1120 448 1104 448
WIRE 768 464 768 336
WIRE 1120 464 1120 448
FLAG 224 368 0
FLAG 768 464 0
FLAG 1120 464 0
FLAG 1024 -16 0
FLAG 576 176 b
FLAG 752 128 c
FLAG 768 240 e
FLAG 832 -304 VCC
FLAG 752 -144 VCC
SYMBOL voltage 96 128 R0
WINDOW 123 24 124 Left 2
WINDOW 39 0 0 Left 0
SYMATTR Value2 AC 1
SYMATTR InstName V1
SYMATTR Value ""
SYMBOL cap 448 160 R90
WINDOW 0 0 32 VBottom 2
WINDOW 3 32 32 VTop 2
SYMATTR InstName C1
SYMATTR Value 0.1µF
SYMBOL res 480 -48 R0
SYMATTR InstName R1
SYMATTR Value 100k
SYMBOL res 480 240 R0
SYMATTR InstName R2
SYMATTR Value 15k
SYMBOL res 736 -48 R0
SYMATTR InstName RC
SYMATTR Value 2.7k
SYMBOL res 752 240 R0
SYMATTR InstName RE
SYMATTR Value 470
SYMBOL cap 832 112 M90
WINDOW 0 0 32 VBottom 2
WINDOW 3 32 32 VTop 2
SYMATTR InstName C3
SYMATTR Value 0.1µF
SYMBOL res 1088 160 R0
SYMATTR InstName R5
SYMATTR Value 3.3k
SYMBOL npn 608 128 R0
SYMATTR InstName Q1
SYMATTR Value kt342v
SYMBOL voltage 880 -304 R270
WINDOW 0 32 56 VTop 2
WINDOW 3 -32 56 VBottom 2
WINDOW 123 0 0 Left 0
WINDOW 39 0 0 Left 0
SYMATTR InstName V2
SYMATTR Value 12
TEXT 64 488 Left 2 !.ac dec 100 0.1 100K
