Version 4
SHEET 1 1384 680
WIRE 640 -48 528 -48
WIRE 832 -48 640 -48
WIRE 416 16 -32 16
WIRE 832 48 832 -48
WIRE 832 48 768 48
WIRE 880 48 832 48
WIRE 1136 48 944 48
WIRE 1136 80 1136 48
WIRE -32 96 -32 16
WIRE 704 96 704 48
WIRE 704 96 672 96
WIRE 416 112 416 16
WIRE 528 112 528 -48
WIRE 704 160 704 96
WIRE 832 160 768 160
WIRE 880 160 832 160
WIRE 944 160 944 48
WIRE 560 176 528 176
WIRE 640 256 640 -48
WIRE 832 256 832 160
WIRE 832 256 640 256
WIRE -32 304 -32 176
WIRE 160 304 -32 304
WIRE 416 304 416 176
WIRE 416 304 160 304
WIRE 560 320 560 176
WIRE 672 368 672 96
WIRE 832 368 672 368
WIRE 1136 368 1136 160
WIRE 1136 368 832 368
WIRE 832 384 832 368
WIRE 160 416 160 304
FLAG 160 416 0
FLAG 832 384 0
FLAG 560 320 0
SYMBOL Vrms -32 160 R0
SYMATTR InstName U1
SYMBOL ZZZ\\TRANSFORMer\\TRANSFORM2 432 96 R0
SYMATTR SpiceLine n1=44 n2=3 Al=1u
SYMATTR InstName U2
SYMBOL diode 704 64 R270
WINDOW 0 32 32 VTop 2
WINDOW 3 0 32 VBottom 2
SYMATTR InstName D1
SYMATTR Value KD102A
SYMBOL diode 704 176 R270
WINDOW 0 32 32 VTop 2
WINDOW 3 0 32 VBottom 2
SYMATTR InstName D2
SYMATTR Value KD102A
SYMBOL diode 880 64 R270
WINDOW 0 32 32 VTop 2
WINDOW 3 0 32 VBottom 2
SYMATTR InstName D3
SYMATTR Value KD102A
SYMBOL diode 880 176 R270
WINDOW 0 32 32 VTop 2
WINDOW 3 0 32 VBottom 2
SYMATTR InstName D4
SYMATTR Value KD102A
SYMBOL res 1120 64 R0
SYMATTR InstName R1
SYMATTR Value 1k
TEXT -66 440 Left 2 !.tran 0.1s
